src/test/resources/pst_special/process2/divacaOutage/20260620_1130_FO5_IT0.uct
##C 2007.05.01
##N
##ZIT
IMFTV111 MONFALC.CE g 0 0 787.44     9.8     1.5     5.4     7.8     1.2     4.1     6.0     6.4
IMFTV121 MONFALC.CE g 0 0 110.35     4.6     5.5     5.4     9.5     2.2     0.9     0.4     0.8
IPDRV121 PADRICIANO g 0 0 535.30    14.1    -8.9     9.4     2.5     1.9     1.4     2.2     3.0
IPDRV122 PADRICIANO g 0 0 696.62     8.1     2.9     8.0     8.2     7.2     2.5     1.3     8.7
IPLNV111 PLANAIS    g 0 0 461.15   293.3    -1.2     5.9     2.1     0.0     3.1     8.6     6.3
IRDPVA11 REDIPUGLIA g 0 0 297.56    26.3   -89.7     5.3     2.2     9.7     7.9     4.8     5.5
IRDPVA21 REDIPUGLIA g 0 0 336.68    07.3    37.5     2.7     4.8     8.2     1.2     2.8     7.3
IUSTV111 UDINE SUD  g 0 0 335.57     4.1     1.7     7.0     5.8     3.8     7.4     8.8     5.1
##ZXX
XRE_DI11 DIVJ    112  0 0 641.52  -993.9    -3.1     4.4     3.6     4.0     6.6     6.6     4.8
XPA_DI21 DIVJ    211  0 0 000.50  -821.4    -1.4     6.1     9.8     8.5     9.5     1.2     7.4
##L
IMFTV121 IPDRV121 1 0 0.746 60.984  481.21  800
IMFTV121 IRDPVA21 1 0 1.304 7.724   63.54   716
IMFTV111 IRDPVA11 1 8 3.814 6.809   42.79   1740
IPLNV111 IRDPVA11 1 0 8.646 2.978   206.80  2190
IRDPVA21 IPDRV121 1 0 6.575 31.560  102.27  713
IUSTV111 IRDPVA11 1 0 8.915 1.607   92.36   2790
IUSTV111 IRDPVA11 2 0 0.850 7.820   74.81   2790
XPA_DI21 IPDRV122 1 0 0.452 4.786   02.22   900
XRE_DI11 IRDPVA11 1 0 2.500 4.298   93.72   2220
##T
IPDRV121 IPDRV122 1 0 144.8 598.3 370.  9.937 25.670  -2.029  4.156
IRDPVA21 IRDPVA11 1 0 543.3 590.8 400.  5.589 60.601  -2.866  4.661
IRDPVA21 IRDPVA11 2 8 352.3 042.0 600.  4.841 96.303  -4.029  6.140
##R
IPDRV121 IPDRV122 1                    7.412  49.5 16   0    0. SYMM
IRDPVA21 IRDPVA11 1
IRDPVA21 IRDPVA11 2
